/*--------------------------------*- C++ -*----------------------------------*\
| =========                 |                                                 |
| \\      /  F ield         | OpenFOAM: The Open Source CFD Toolbox           |
|  \\    /   O peration     | Version:  2.1.0                                 |
|   \\  /    A nd           | Web:      www.OpenFOAM.org                      |
|    \\/     M anipulation  |                                                 |
\*---------------------------------------------------------------------------*/
FoamFile
{
    version     2.0;
    format      binary;
    class       polyBoundaryMesh;
    location    "constant/polyMesh";
    object      boundary;
}
// * * * * * * * * * * * * * * * * * * * * * * * * * * * * * * * * * * * * * //

6
(
    capsuleWall
    {
        type            wall;
        nFaces          10;
        startFace       27700;
    }
    left
    {
        type            wall;
        nFaces          50;
        startFace       27710;
    }
    right
    {
        type            wall;
        nFaces          60;
        startFace       27760;
    }
    top
    {
        type            wall;
        nFaces          240;
        startFace       27820;
    }
    bottom
    {
        type            wall;
        nFaces          240;
        startFace       28060;
    }
    frontAndBack
    {
        type            empty;
        nFaces          28000;
        startFace       28300;
    }
)

// ************************************************************************* //
