/*--------------------------------*- C++ -*----------------------------------*\
| =========                 |                                                 |
| \\      /  F ield         | OpenFOAM: The Open Source CFD Toolbox           |
|  \\    /   O peration     | Version:  2.1.0                                 |
|   \\  /    A nd           | Web:      www.OpenFOAM.org                      |
|    \\/     M anipulation  |                                                 |
\*---------------------------------------------------------------------------*/
FoamFile
{
    version     2.0;
    format      ascii;
    class       volVectorField;
    object      U;
}
// * * * * * * * * * * * * * * * * * * * * * * * * * * * * * * * * * * * * * //

dimensions      [0 1 -1 0 0 0 0];

internalField   uniform (0 0 0);

boundaryField
{
    capsuleWall
    {
        type            fixedValue;
        value				$internalField;
    }
    
    left
    {
        type            fixedValue;
        value				$internalField;
    }

    right
    {
        type            fixedValue;
        value				$internalField;
    }
    
    top
    {
        type            fixedValue;
        value				$internalField;
    }    

    bottom
    {
        type            symmetryPlane;
    }

    frontAndBack_pos
    {
        type            wedge;
    }
    
      frontAndBack_neg
    {
        type            wedge;
    }
}

// ************************************************************************* //
