/*--------------------------------*- C++ -*----------------------------------*\
| =========                 |                                                 |
| \\      /  F ield         | OpenFOAM: The Open Source CFD Toolbox           |
|  \\    /   O peration     | Version:  2.1.0                                 |
|   \\  /    A nd           | Web:      www.OpenFOAM.org                      |
|    \\/     M anipulation  |                                                 |
\*---------------------------------------------------------------------------*/
FoamFile
{
    version     2.0;
    format      ascii;
    class       volScalarField;
    location    "0";
    object      nuTilda;
}
// * * * * * * * * * * * * * * * * * * * * * * * * * * * * * * * * * * * * * //

dimensions      [ 0 2 -1 0 0 0 0 ];

internalField   uniform 0.05;

boundaryField
{
    left
    {
        type            fixedValue;
        value           uniform 0.05;
    }
    
    right
    {
        type            inletOutlet;
        inletValue      uniform 0.05;
        value           uniform 0.05;
    }
    
    topAndBottom
    {
        type            fixedValue;
        value           uniform 0;
    }
    
    capsuleWall
    {
        type            fixedValue;
        value           uniform 0;
    }

    frontAndBack
    {
        type            empty;
    }

}


// ************************************************************************* //
